Version 4
SHEET 1 880 680
WIRE 144 -224 48 -224
WIRE 272 -224 224 -224
WIRE 192 -32 192 -80
WIRE 192 16 192 -32
WIRE -48 32 -48 16
WIRE 48 32 48 -224
WIRE 48 32 -48 32
WIRE 160 32 48 32
WIRE 272 48 272 -224
WIRE 272 48 224 48
WIRE 320 48 272 48
WIRE 160 64 64 64
WIRE 192 128 192 80
WIRE 64 144 64 64
WIRE 64 144 -48 144
WIRE 192 160 192 128
WIRE 64 256 64 144
FLAG -208 16 0
FLAG -208 144 0
FLAG 192 -160 0
FLAG 64 336 0
FLAG 192 240 0
FLAG 128 -32 0
FLAG 128 128 0
DATAFLAG 304 48 ""
SYMBOL voltage -112 16 R90
WINDOW 0 -32 56 VBottom 2
WINDOW 3 32 56 VTop 2
WINDOW 123 0 0 Left 0
WINDOW 39 0 0 Left 0
SYMATTR InstName V1
SYMATTR Value 0.55
SYMBOL voltage -112 144 R90
WINDOW 0 -32 56 VBottom 2
WINDOW 3 32 56 VTop 2
WINDOW 123 0 0 Left 0
WINDOW 39 0 0 Left 0
SYMATTR InstName V2
SYMATTR Value 0.55
SYMBOL voltage 192 -64 R180
WINDOW 0 24 96 Left 2
WINDOW 3 24 16 Left 2
WINDOW 123 0 0 Left 0
WINDOW 39 0 0 Left 0
SYMATTR InstName V3
SYMATTR Value 13
SYMBOL voltage 192 144 R0
WINDOW 123 0 0 Left 0
WINDOW 39 0 0 Left 0
SYMATTR InstName V4
SYMATTR Value -13
SYMBOL res -32 0 R90
WINDOW 0 0 56 VBottom 2
WINDOW 3 32 56 VTop 2
SYMATTR InstName R1
SYMATTR Value 1000
SYMBOL res -32 128 R90
WINDOW 0 0 56 VBottom 2
WINDOW 3 32 56 VTop 2
SYMATTR InstName R2
SYMATTR Value 1000
SYMBOL res 240 -240 R90
WINDOW 0 0 56 VBottom 2
WINDOW 3 32 56 VTop 2
SYMATTR InstName R3
SYMATTR Value 5400
SYMBOL res 48 240 R0
SYMATTR InstName R4
SYMATTR Value 5400
SYMBOL cap 192 112 R90
WINDOW 0 0 32 VBottom 2
WINDOW 3 32 32 VTop 2
SYMATTR InstName C1
SYMATTR Value 0.1µ
SYMBOL cap 192 -48 R90
WINDOW 0 0 32 VBottom 2
WINDOW 3 32 32 VTop 2
SYMATTR InstName C2
SYMATTR Value 0.1µ
SYMBOL OpAmps\\OP77 192 -16 R0
SYMATTR InstName U1
TEXT -228 360 Left 2 !.op
